/*--------------------------------*- C++ -*----------------------------------*\
| =========                 |                                                 |
| \\      /  F ield         | OpenFOAM: The Open Source CFD Toolbox           |
|  \\    /   O peration     | Version:  2.3.0                                 |
|   \\  /    A nd           | Web:      www.OpenFOAM.org                      |
|    \\/     M anipulation  |                                                 |
\*---------------------------------------------------------------------------*/
FoamFile
{
    version     2.0;
    format      ascii;
    class       dictionary;
    object      changeDictionaryDict;
}
// * * * * * * * * * * * * * * * * * * * * * * * * * * * * * * * * * * * * * //

dictionaryReplacement
{
    U
    {
        internalField   uniform (0 0.001 0);

        boundaryField
        {
            ".*"
            {
                type            fixedValue;
                value           uniform (0 0 0);
            }
            inlet
            {
                type            zeroGradient;
                value           uniform ( 0 0 0 );
            }
            outlet
            {
                type            zeroGradient;
                value           uniform ( 0 0 0 );
            }
            x_sym
            {
                type            symmetryPlane;
            }
            z_sym_1
            {
                type            symmetryPlane;
            }
            z_sym_2
            {
                type            symmetryPlane;
            }
            walls
            {
                type            fixedValue;
                value           uniform (0 0 0);
            }
            "air_to_.*"
            {
                type            fixedValue;
                value           uniform (0 0 0);
            }
        }
    }

    T
    {
        internalField   uniform 300;

        boundaryField
        {
            ".*"
            {
                type            zeroGradient;
            }

            inlet
            {
                type            inletOutlet;
                inletValue      uniform 300;
                value           uniform 300;
            }
            outlet
            {
                type            inletOutlet;
                inletValue      uniform 300;
                value           uniform 300;
            }

            "air_to_.*"
            {
                type            compressible::turbulentTemperatureCoupledBaffleMixed;
                Tnbr            T;
                kappa           fluidThermo;
                kappaName       none;
                value           uniform 300;
            }
            x_sym
            {
                type            symmetryPlane;
            }
            z_sym_1
            {
                type            symmetryPlane;
            }
            z_sym_2
            {
                type            symmetryPlane;
            }
        }
    }

    epsilon
    {
        internalField   uniform 0.01;

        boundaryField
        {
            ".*"
            {
                type            compressible::epsilonWallFunction;
                value           uniform 0.01;
            }

            x_sym
            {
                type            symmetryPlane;
            }

            z_sym_1
            {
                type            symmetryPlane;
            }

            z_sym_2
            {
                type            symmetryPlane;
            }

            inlet
            {
                type            inletOutlet;
                inletValue      uniform 0.01;
                value           uniform 0.01;
            }
            outlet
            {
                type            inletOutlet;
                inletValue      uniform 0.01;
                value           uniform 0.01;
            }

        }
    }

    k
    {
        internalField   uniform 0.1;

        boundaryField
        {
            ".*"
            {
                type            compressible::kqRWallFunction;
                value           uniform 0.1;
            }

            inlet
            {
                type            inletOutlet;
                inletValue      uniform 0.1;
                value           uniform 0.1;
            }
            outlet
            {
                type            inletOutlet;
                inletValue      uniform 0.1;
                value           uniform 0.1;
            }

            x_sym
            {
                type            symmetryPlane;
            }

            z_sym_1
            {
                type            symmetryPlane;
            }

            z_sym_2
            {
                type            symmetryPlane;
            }
        }
    }

    p_rgh
    {
        internalField   uniform 1e5;

        boundaryField
        {
            ".*"
            {
                type            fixedFluxPressure;
                value           uniform 1e5;
            }

            "air_to_.*"
            {
                type            fixedFluxPressure;
                value           uniform 1e5;
            }

            inlet
            {
                type            inletOutlet;
                inletValue      uniform 1.0e5;
                value           uniform 1.0e5;
            }

            outlet
            {
                type            inletOutlet;
                inletValue      uniform 1.0e5;
                value           uniform 1.0e5;
            }

            x_sym
            {
                type            symmetryPlane;
            }
            z_sym_1
            {
                type            symmetryPlane;
            }
            z_sym_2
            {
                type            symmetryPlane;
            }
        }
    }

    p
    {
        internalField   uniform 1e5;

        boundaryField
        {
            ".*"
            {
                type            calculated;
                value           uniform 1e5;
            }

            "air_to_.*"
            {
                type            calculated;
                value           uniform 1e5;
            }

            inlet
            {
                type            inletOutlet;
                inletValue      uniform 1.0e5;
                value           uniform 1.0e5;
            }

            outlet
            {
                type            inletOutlet;
                inletValue      uniform 1.0e5;
                value           uniform 1.0e5;
            }

            x_sym
            {
                type            symmetryPlane;
            }

            z_sym_1
            {
                type            symmetryPlane;
            }

            z_sym_2
            {
                type            symmetryPlane;
            }
        }
    }
}

// ************************************************************************* //
