/*--------------------------------*- C++ -*----------------------------------*\
| =========                 |                                                 |
| \\      /  F ield         | OpenFOAM: The Open Source CFD Toolbox           |
|  \\    /   O peration     | Version:  2.3.0                                 |
|   \\  /    A nd           | Web:      www.OpenFOAM.org                      |
|    \\/     M anipulation  |                                                 |
\*---------------------------------------------------------------------------*/
FoamFile
{
    version     2.0;
    format      ascii;
    class       dictionary;
    object      changeDictionaryDict;
}
// * * * * * * * * * * * * * * * * * * * * * * * * * * * * * * * * * * * * * //

dictionaryReplacement
{
    U
    {
        // internalField will be mapped from potential case
        //internalField   uniform (0 0.00037 0);

        boundaryField
        {
            ".*"
            {
                type            fixedValue;
                value           uniform (0 0 0);
            }
            x_sym
            {
                type            symmetryPlane;
            }
            z_sym_1
            {
                type            symmetryPlane;
            }
            z_sym_2
            {
                type            symmetryPlane;
            }
            outlet
            {
                //
                // inletOutlet is basically a fixedValue boundary condition when a 
                // flux into the domain is present and a zeroGradient when the flux 
                // is pointing outwards. Though boundary conditions are applied to 
                // boundary patches, this decision is done on a face-to-face basis. 
                // This means that two adjoining boundary faces on a boundary patch 
                // might have fluxes with different signs and are hence handled differently.
                //
                //type            inletOutlet;
                //inletValue      uniform ( 0 0 0 );
                // value will be mapped from potential case
                //value           uniform ( 0 0.00037 0 );
                type zeroGradient;
            }

            inlet
            {
                //
                // The outletInlet boundary condition does this decision in the same manner, 
                // but if there is an inward flux, it is a zeroGradient and otherwise a 
                // fixedValue boundary condition.
                //
                type            outletInlet;
                outletValue     uniform ( 0 0 0 );
                //value           uniform ( 0 0.01 0 );
                // Apply forced convection to get the solution
                // started for 1000 increments
                // then change over to outletInlet for
                // natural convection
                //type            fixedValue;
                //value           uniform (0 0.01 0);
            }
        }
    }

    T
    {
        internalField   uniform 300;

        boundaryField
        {
            ".*"
            {
                type            zeroGradient;
            }

            x_sym
            {
                type            symmetryPlane;
            }
            z_sym_1
            {
                type            symmetryPlane;
            }
            z_sym_2
            {
                type            symmetryPlane;
            }
            inlet
            {
                type            inletOutlet;
                inletValue      uniform 300;
                value           uniform 300;
            }
            outlet
            {
                type            inletOutlet;
                inletValue      uniform 300;
                value           uniform 300;
            }

            "air_to_.*"
            {
                type            compressible::turbulentTemperatureCoupledBaffleMixed;
                neighbourFieldName T;
                kappa           fluidThermo;
                kappaName       none;
                value           uniform 300;
            }
        }
    }

    epsilon
    {
        internalField   uniform 200;

        boundaryField
        {
            ".*"
            {
                type            compressible::epsilonWallFunction;
                value           uniform 0.01;
            }

            x_sym
            {
                type            symmetryPlane;
            }
            z_sym_1
            {
                type            symmetryPlane;
            }
            z_sym_2
            {
                type            symmetryPlane;
            }
            inlet
            {
                type            inletOutlet;
                inletValue      $internalField;
            }
            outlet
            {
                type            inletOutlet;
                inletValue      $internalField;
                value           uniform 0.01;
            }

        }
    }

    k
    {
        internalField   uniform 0.2;

        boundaryField
        {
            ".*"
            {
                type            compressible::kqRWallFunction;
                value           uniform 0;
            }

            x_sym
            {
                type            symmetryPlane;
            }
            z_sym_1
            {
                type            symmetryPlane;
            }
            z_sym_2
            {
                type            symmetryPlane;
            }
            inlet
            {
                type            compressible::turbulentIntensityKineticEnergyInlet;
                intensity       0.05;       // 5% turbulent intensity
                value           $internalField;
            }
            outlet
            {
                type            inletOutlet;
                inletValue      $internalField;
            }
        }
    }

    nut
    {
        internalField   uniform 0;

        boundaryField
        {
            ".*"
            {
                type            compressible::nutkWallFunction;
                value           uniform 0;
            }

            x_sym
            {
                type            symmetryPlane;
            }
            z_sym_1
            {
                type            symmetryPlane;
            }
            z_sym_2
            {
                type            symmetryPlane;
            }
            inlet
            {
                type            calculated;
                value           0;
            }
            outlet
            {
                type            calculated;
                inletValue      0;
            }
        }
    }

    nuTilda
    {
        internalField   uniform 0;

        boundaryField
        {
            ".*"
            {
                type            zeroGradient;
            }

            x_sym
            {
                type            symmetryPlane;
            }
            z_sym_1
            {
                type            symmetryPlane;
            }
            z_sym_2
            {
                type            symmetryPlane;
            }
            inlet
            {
                type            zeroGradient;
            }
            outlet
            {
                type            zeroGradient;
            }
        }
    }

    p_rgh
    {
        internalField   uniform 1e5;

        boundaryField
        {
            ".*"
            {
                type            fixedFluxPressure;
                value           uniform 1e5;
            }

            x_sym
            {
                type            symmetryPlane;
            }
            z_sym_1
            {
                type            symmetryPlane;
            }
            z_sym_2
            {
                type            symmetryPlane;
            }
            inlet
            {
                type            fixedValue;
                value           uniform 1.0e5;
            }

            outlet
            {
                //type            fixedFluxPressure;
                //value           uniform 1.0e5;
                //type            buoyantPressure;
                //value           uniform 1.0e5;
                type            inletOutlet;
                inletValue      uniform 1.0e5;
            }
        }
    }

    p
    {
        internalField   uniform 1e5;

        boundaryField
        {
            ".*"
            {
                type            calculated;
                value           uniform 1e5;
            }

            x_sym
            {
                type            symmetryPlane;
            }
            z_sym_1
            {
                type            symmetryPlane;
            }
            z_sym_2
            {
                type            symmetryPlane;
            }
            inlet
            {
                type            inletOutlet;
                inletValue      uniform 1.0e5;
                value           uniform 1.0e5;
            }

            outlet
            {
                type            calculated;
                value           uniform 1e5;
            }
        }
    }
}

// ************************************************************************* //
