/*--------------------------------*- C++ -*----------------------------------*\
| =========                 |                                                 |
| \\      /  F ield         | OpenFOAM: The Open Source CFD Toolbox           |
|  \\    /   O peration     | Version:  2.3.0                                 |
|   \\  /    A nd           | Web:      www.OpenFOAM.org                      |
|    \\/     M anipulation  |                                                 |
\*---------------------------------------------------------------------------*/
FoamFile
{
    version     2.0;
    format      ascii;
    class       dictionary;
    object      fvSchemes;
}
// * * * * * * * * * * * * * * * * * * * * * * * * * * * * * * * * * * * * * //

ddtSchemes
{
    default CrankNicolson 0.5;
}

gradSchemes
{
    default         cellMDLimited Gauss linear 0.5;
    grad(U)         cellMDLimited Gauss linear 0.5;
}

divSchemes
{
    default         Gauss linearUpwind default;

    div(phi,U)      Gauss linearUpwind grad(U);
    div((muEff*dev2(T(grad(U))))) Gauss linear;
    div((nuEff*dev2(T(grad(U))))) Gauss linear;
}

laplacianSchemes
{
    default        Gauss linear limited 0.777;
}

interpolationSchemes
{
    default         linear;
}

snGradSchemes
{
    default         limited 0.777;
}

fluxRequired
{
    default         no;
    p_rgh;
    T;
    U;
}

// ************************************************************************* //
