/*--------------------------------------------------------------------*\
|                                                                      |
|    File exported from Salome Platformusing SalomeToFoamExporter     |
|                                                                      |
\*--------------------------------------------------------------------*/
FoamFile
{
	version		2.0;
	format		ascii;
	class		polyBoundaryMesh;
	location	"constant/polyMesh";
	object		boundary;
}

7
(
    inlet
	{
	type		patch;
	nFaces		48;
	startFace	162382;
	}
    wall
	{
	type		wall;
	nFaces		3708;
	startFace	162430;
	}
    outlet
	{
	type		patch;
	nFaces		522;
	startFace	166138;
	}
    z_sym
	{
	type		patch;
	nFaces		5906;
	startFace	166660;
	}
    x_sym
	{
	type		patch;
	nFaces		746;
	startFace	172566;
	}
    flux
	{
	type		patch;
	nFaces		120;
	startFace	173312;
	}
    defaultPatches
	{
	type		patch;
	nFaces		1734;
	startFace	173432;
	}
)
