/*--------------------------------------------------------------------*\
|                                                                      |
|    File exported from Salome Platformusing SalomeToFoamExporter     |
|                                                                      |
\*--------------------------------------------------------------------*/
FoamFile
{
	version		2.0;
	format		ascii;
	class		polyBoundaryMesh;
	location	"constant/polyMesh";
	object		boundary;
}

9
(
	outlet
	{
	type		patch;
	nFaces		2094;
	startFace	1191778;
	}
	x_sym
	{
	type		symmetryPlane;
	nFaces		3241;
	startFace	1193872;
	}
	inlet
	{
	type		patch;
	nFaces		1354;
	startFace	1197113;
	}
	defaultPatches
	{
	type		patch;
	nFaces		6770;
	startFace	1198467;
	}
	appliedFlux
	{
	type		patch;
	nFaces		522;
	startFace	1205237;
	}
	z_sym_1
	{
	type		symmetryPlane;
	nFaces		11879;
	startFace	1205759;
	}
	z_sym_2
	{
	type		symmetryPlane;
	nFaces		12675;
	startFace	1217638;
	}
	wall
	{
	type		wall;
	nFaces		3589;
	startFace	1230313;
	}
	inlet_side
	{
	type		patch;
	nFaces		10464;
	startFace	1233902;
	}
)
