/*--------------------------------------------------------------------*\
|                                                                      |
|    File exported from Salome Platformusing SalomeToFoamExporter     |
|                                                                      |
\*--------------------------------------------------------------------*/
FoamFile
{
	version		2.0;
	format		ascii;
	class		polyBoundaryMesh;
	location	"constant/polyMesh";
	object		boundary;
}

6
(
	x_sym
	{
	type		symmetryPlane;
	nFaces		3241;
	startFace	1191778;
	}
	z_sym_1
	{
	type		symmetryPlane;
	nFaces		11879;
	startFace	1195541;
	}
	z_sym_2
	{
	type		symmetryPlane;
	nFaces		12675;
	startFace	1207420;
	}
	inlet
	{
	type		patch;
	nFaces		188;
	startFace	1220095;
	}
	wall
	{
	type		wall;
	nFaces		15219;
	startFace	1220283;
	}
	outlet
	{
	type		patch;
	nFaces		2094;
	startFace	1235502;
	}
)
