/*--------------------------------------------------------------------*\
|                                                                      |
|    File exported from Salome Platformusing SalomeToFoamExporter     |
|                                                                      |
\*--------------------------------------------------------------------*/
FoamFile
{
	version		2.0;
	format		ascii;
	class		polyBoundaryMesh;
	location	"constant/polyMesh";
	object		boundary;
}

6
(
inlet
	{
	type		patch;
	nFaces		48;
	startFace	159092;
	}
wall
	{
	type		wall;
	nFaces		3708;
	startFace	159140;
	}
outlet
	{
	type		patch;
	nFaces		522;
	startFace	162848;
	}
z_sym
	{
	type		patch;
	nFaces		5906;
	startFace	163370;
	}
x_sym
	{
	type		patch;
	nFaces		746;
	startFace	169276;
	}
flux
	{
	type		patch;
	nFaces		120;
	startFace	170022;
	}
)
