/*--------------------------------------------------------------------*\
|                                                                      |
|    File exported from Salome Platformusing SalomeToFoamExporter     |
|                                                                      |
\*--------------------------------------------------------------------*/
FoamFile
{
	version		2.0;
	format		ascii;
	class		polyBoundaryMesh;
	location	"constant/polyMesh";
	object		boundary;
}

8
(
	inlet
	{
	type		patch;
	nFaces		48;
	startFace	162382;
	}
	wall
	{
	type		wall;
	nFaces		3708;
	startFace	162430;
	}
	outlet
	{
	type		patch;
	nFaces		522;
	startFace	166138;
	}
	x_sym
	{
	type		patch;
	nFaces		746;
	startFace	166660;
	}
	flux
	{
	type		patch;
	nFaces		120;
	startFace	167406;
	}
	defaultPatches
	{
	type		patch;
	nFaces		1734;
	startFace	167526;
	}
	z_sym_1
	{
	type		patch;
	nFaces		3031;
	startFace	169260;
	}
	z_sym_2
	{
	type		patch;
	nFaces		2875;
	startFace	172291;
	}
)
