/*--------------------------------*- C++ -*----------------------------------*\
| =========                 |                                                 |
| \\      /  F ield         | OpenFOAM: The Open Source CFD Toolbox           |
|  \\    /   O peration     | Version:  2.3.0                                 |
|   \\  /    A nd           | Web:      www.OpenFOAM.org                      |
|    \\/     M anipulation  |                                                 |
\*---------------------------------------------------------------------------*/
FoamFile
{
    version     2.0;
    format      ascii;
    class       dictionary;
    location    "system";
    object      controlDict;
}
// * * * * * * * * * * * * * * * * * * * * * * * * * * * * * * * * * * * * * //

libs
(
    "libcompressibleTurbulenceModel.so"
    "libcompressibleRASModels.so"
);

application     chtMultiRegionFoam;

startFrom       latestTime;

startTime       0.001;

stopAt          endTime;

endTime         100;

deltaT          0.001;

writeControl    adjustableRunTime;

writeInterval   0.005;

purgeWrite      0;

writeFormat     binary;

//writePrecision  8;

writeCompression off;

timeFormat      general;

timePrecision   6;

runTimeModifiable yes;

maxCo           0.6;

// Maximum diffusion number
maxDi           0.00067;

adjustTimeStep  yes;

// ************************************************************************* //
