/*--------------------------------*- C++ -*----------------------------------*\
| =========                 |                                                 |
| \\      /  F ield         | OpenFOAM: The Open Source CFD Toolbox           |
|  \\    /   O peration     | Version:  2.3.0                                 |
|   \\  /    A nd           | Web:      www.OpenFOAM.org                      |
|    \\/     M anipulation  |                                                 |
\*---------------------------------------------------------------------------*/
FoamFile
{
    version     2.0;
    format      ascii;
    class       dictionary;
    location    "system";
    object      controlDict;
}
// * * * * * * * * * * * * * * * * * * * * * * * * * * * * * * * * * * * * * //

libs
(
    "libOpenFOAM.so"
    "libsimpleSwakFunctionObjects.so"
    "libswakFunctionObjects.so"
    "libgroovyBC.so"
    "libcompressibleTurbulenceModel.so"
    "libcompressibleRASModels.so"
);

application     chtMultiRegionFoam;

startFrom       latestTime;

startTime       0.001;

stopAt          endTime;

endTime         1000;

deltaT          0.001;

writeControl    adjustableRunTime;

writeInterval   0.1;

purgeWrite      0;

writeFormat     binary;

//writePrecision  8;

writeCompression off;

timeFormat      general;

timePrecision   6;

runTimeModifiable yes;

maxCo           0.6;

// Maximum diffusion number
maxDi           0.00067;

adjustTimeStep  yes;

functions
(
    airOutletT
    {
    type patchAverage;
    functionObjectLibs ("libsimpleFunctionObjects.so");
    fields ( T );
    patches ( outlet );
    region air;
    verbose true;
    factor 1;
    outputControlMode   timeStep;
    outputInterval    1;
    }
    airOutletU
    {
    type patchAverage;
    functionObjectLibs ("libsimpleFunctionObjects.so");
    fields ( U );
    patches ( outlet );
    region air;
    verbose true;
    factor 1;
    outputControlMode   timeStep;
    outputInterval    1;
    }
    airOutletprgh
    {
    type patchAverage;
    functionObjectLibs ("libsimpleFunctionObjects.so");
    fields ( p_rgh );
    patches ( outlet );
    region air;
    verbose true;
    factor 1;
    outputControlMode   timeStep;
    outputInterval    1;
    }
    airOutletp
    {
    type patchAverage;
    functionObjectLibs ("libsimpleFunctionObjects.so");
    fields ( p );
    patches ( outlet );
    region air;
    verbose true;
    factor 1;
    outputControlMode   timeStep;
    outputInterval    1;
    }
    airInletT
    {
    type patchAverage;
    functionObjectLibs ("libsimpleFunctionObjects.so");
    fields ( T );
    patches ( inlet );
    region air;
    verbose true;
    factor 1;
    outputControlMode   timeStep;
    outputInterval    1;
    }
    airInletU
    {
    type patchAverage;
    functionObjectLibs ("libsimpleFunctionObjects.so");
    fields ( U );
    patches ( inlet );
    region air;
    verbose true;
    factor 1;
    outputControlMode   timeStep;
    outputInterval    1;
    }
    airInletprgh
    {
    type patchAverage;
    functionObjectLibs ("libsimpleFunctionObjects.so");
    fields ( p_rgh );
    patches ( inlet );
    region air;
    verbose true;
    factor 1;
    outputControlMode   timeStep;
    outputInterval    1;
    }
    airInletp
    {
    type patchAverage;
    functionObjectLibs ("libsimpleFunctionObjects.so");
    fields ( p );
    patches ( inlet );
    region air;
    verbose true;
    factor 1;
    outputControlMode   timeStep;
    outputInterval    1;
    }
);
// ************************************************************************* //
