/*--------------------------------*- C++ -*----------------------------------*\
| =========                 |                                                 |
| \\      /  F ield         | OpenFOAM: The Open Source CFD Toolbox           |
|  \\    /   O peration     | Version:  2.3.0                                 |
|   \\  /    A nd           | Web:      www.OpenFOAM.org                      |
|    \\/     M anipulation  |                                                 |
\*---------------------------------------------------------------------------*/
FoamFile
{
    version     2.0;
    format      ascii;
    class       dictionary;
    object      topoSetDict;
}

// * * * * * * * * * * * * * * * * * * * * * * * * * * * * * * * * * * * * * //

actions
(
    // Air
    {
        name    air;
        type    cellSet;
        action  new;
        source  zoneToCell;
        sourceInfo
        {
            name air;
        }
    }
    // Rail
    {
        name    rail;
        type    cellSet;
        action  new;
        source  zoneToCell;
        sourceInfo
        {
            name rail;
        }
    }
);

// ************************************************************************* //
