/*--------------------------------*- C++ -*----------------------------------*\
| =========                 |                                                 |
| \\      /  F ield         | OpenFOAM: The Open Source CFD Toolbox           |
|  \\    /   O peration     | Version:  2.3.x                                 |
|   \\  /    A nd           | Web:      www.OpenFOAM.org                      |
|    \\/     M anipulation  |                                                 |
\*---------------------------------------------------------------------------*/
FoamFile
{
    version     2.0;
    format      ascii;
    class       volScalarField;
    location    "0";
    object      p;
}
// * * * * * * * * * * * * * * * * * * * * * * * * * * * * * * * * * * * * * //

dimensions      [1 -1 -2 0 0 0 0];

internalField   uniform 100000;

boundaryField
{
            ".*"
            {
                type            zeroGradient;
            }

            inlet
            {
                type            zeroGradient;
            }

            outlet
            {
                type            fixedValue;
                value           uniform 1e5;
            }
            x_sym
            {
                type            symmetryPlane;
            }
            z_sym_1
            {
                type            symmetryPlane;
            }
            z_sym_2
            {
                type            symmetryPlane;
            }

}


// ************************************************************************* //
